Version 4
SHEET 1 880 1396
WIRE -64 -192 -256 -192
WIRE 96 -192 -64 -192
WIRE 256 -192 96 -192
WIRE -256 -128 -256 -192
WIRE -112 -112 -144 -112
WIRE 96 -96 96 -192
WIRE 256 -80 256 -192
WIRE -1536 -48 -1536 -80
WIRE -1328 -48 -1328 -96
WIRE -1136 -48 -1136 -80
WIRE -304 -48 -336 -48
WIRE 48 -16 16 -16
WIRE -512 128 -592 128
WIRE -384 128 -416 128
WIRE 96 128 96 0
WIRE 96 128 -384 128
WIRE 160 128 96 128
WIRE 400 128 160 128
WIRE 608 128 400 128
WIRE -1552 192 -1552 160
WIRE -1344 192 -1344 160
WIRE -1136 192 -1136 160
WIRE 160 208 112 208
WIRE 400 208 336 208
WIRE 608 208 560 208
WIRE -592 304 -592 128
WIRE -528 304 -592 304
WIRE -384 304 -432 304
WIRE -64 304 -64 -96
WIRE -64 304 -384 304
WIRE 160 304 -64 304
WIRE 384 304 160 304
WIRE 608 304 384 304
WIRE 112 384 112 208
WIRE 160 384 112 384
WIRE 336 384 336 208
WIRE 384 384 336 384
WIRE 560 384 560 208
WIRE 608 384 560 384
WIRE -1552 464 -1552 432
WIRE -1344 464 -1344 432
WIRE -1152 464 -1152 432
WIRE -592 480 -592 304
WIRE -528 480 -592 480
WIRE -368 480 -432 480
WIRE -256 480 -256 -32
WIRE -256 480 -368 480
WIRE 160 480 -256 480
WIRE 384 480 160 480
WIRE 608 480 384 480
WIRE 112 560 112 384
WIRE 160 560 112 560
WIRE 336 560 336 384
WIRE 384 560 336 560
WIRE 560 560 560 384
WIRE 608 560 560 560
WIRE -592 576 -592 480
WIRE 112 608 112 560
WIRE 560 608 560 560
WIRE 336 624 336 560
WIRE -400 672 -592 672
WIRE -240 672 -400 672
WIRE -80 672 -240 672
WIRE -80 688 -80 672
WIRE -1568 704 -1568 672
WIRE -1360 704 -1360 672
WIRE -1152 704 -1152 672
WIRE -592 736 -592 672
WIRE -448 752 -480 752
WIRE -240 768 -240 672
WIRE -80 768 -80 752
WIRE -288 848 -320 848
WIRE -240 896 -240 864
WIRE 112 896 112 608
WIRE 112 896 -240 896
WIRE -400 992 -400 768
WIRE 336 992 336 624
WIRE 336 992 -400 992
WIRE -592 1088 -592 832
WIRE 560 1088 560 608
WIRE 560 1088 -592 1088
WIRE 112 1200 112 896
WIRE 336 1216 336 992
WIRE 560 1216 560 1088
WIRE 112 1360 112 1296
WIRE 336 1376 336 1312
WIRE 560 1376 560 1312
FLAG -384 128 A
FLAG -384 304 B
FLAG -368 480 C
FLAG 112 608 X
FLAG 336 624 Y
FLAG 560 608 Z
FLAG -432 176 SA
FLAG -448 352 SB
FLAG -448 528 SC
FLAG 64 1280 DA
FLAG 288 1296 DB
FLAG 512 1296 DC
FLAG -592 576 0
FLAG 112 1360 0
FLAG 336 1376 0
FLAG 560 1376 0
FLAG 16 -16 CC
FLAG 256 -16 0
FLAG -144 -112 CB
FLAG -336 -48 CA
FLAG -320 848 TC
FLAG -80 768 0
FLAG -480 752 TB
FLAG -640 816 TA
FLAG -1136 32 0
FLAG -1328 32 0
FLAG -1536 32 0
FLAG -1552 272 0
FLAG -1344 272 0
FLAG -1136 272 0
FLAG -1152 544 0
FLAG -1344 544 0
FLAG -1552 544 0
FLAG -1568 784 0
FLAG -1360 784 0
FLAG -1152 784 0
FLAG -1536 -80 A
FLAG -1328 -96 B
FLAG -1136 -80 C
FLAG -1552 160 X
FLAG -1344 160 B
FLAG -1136 160 C
FLAG -1552 432 DA
FLAG -1344 432 DB
FLAG -1152 432 DC
FLAG -1568 672 TA
FLAG -1360 672 TB
FLAG -1152 672 TC
SYMBOL memristor 144 112 R0
SYMATTR InstName U1
SYMBOL memristor 384 112 R0
SYMATTR InstName U2
SYMBOL memristor 592 112 R0
SYMATTR InstName U3
SYMBOL memristor 144 288 R0
SYMATTR InstName U4
SYMBOL memristor 368 288 R0
SYMATTR InstName U5
SYMBOL memristor 592 288 R0
SYMATTR InstName U6
SYMBOL memristor 144 464 R0
SYMATTR InstName U7
SYMBOL memristor 368 464 R0
SYMATTR InstName U8
SYMBOL memristor 592 464 R0
SYMATTR InstName U9
SYMBOL nmos 64 1200 R0
SYMATTR InstName M1
SYMBOL nmos 288 1216 R0
SYMATTR InstName M2
SYMBOL nmos 512 1216 R0
SYMATTR InstName M3
SYMBOL nmos -512 176 R270
SYMATTR InstName M4
SYMBOL nmos -528 352 R270
SYMATTR InstName M5
SYMBOL nmos -528 528 R270
SYMATTR InstName M6
SYMBOL nmos 48 -96 R0
SYMATTR InstName M9
SYMBOL Misc\\cell 256 -80 R0
WINDOW 123 0 0 Left 0
WINDOW 39 0 0 Left 0
SYMATTR InstName V1
SYMATTR Value 5V
SYMBOL nmos -112 -192 R0
SYMATTR InstName M7
SYMBOL nmos -304 -128 R0
SYMATTR InstName M8
SYMBOL nmos -288 768 R0
SYMATTR InstName M10
SYMBOL Misc\\cell -80 688 R0
WINDOW 123 0 0 Left 0
WINDOW 39 0 0 Left 0
SYMATTR InstName V2
SYMATTR Value 5V
SYMBOL nmos -448 672 R0
SYMATTR InstName M11
SYMBOL nmos -640 736 R0
SYMATTR InstName M12
SYMBOL voltage -1136 -64 R0
SYMATTR InstName V3
SYMBOL voltage -1328 -64 R0
SYMATTR InstName V4
SYMBOL voltage -1536 -64 R0
SYMATTR InstName V5
SYMBOL voltage -1552 176 R0
SYMATTR InstName V6
SYMBOL voltage -1344 176 R0
SYMATTR InstName V7
SYMBOL voltage -1136 176 R0
SYMATTR InstName V8
SYMBOL voltage -1152 448 R0
SYMATTR InstName V9
SYMBOL voltage -1344 448 R0
SYMATTR InstName V10
SYMBOL voltage -1552 448 R0
SYMATTR InstName V11
SYMBOL voltage -1568 688 R0
SYMATTR InstName V12
SYMBOL voltage -1360 688 R0
SYMATTR InstName V13
SYMBOL voltage -1152 688 R0
SYMATTR InstName V14
