Version 4
SHEET 1 1344 724
WIRE -48 80 -192 80
WIRE 128 80 -48 80
WIRE 448 80 128 80
WIRE 752 80 448 80
WIRE 128 160 80 160
WIRE 448 160 416 160
WIRE 752 160 720 160
WIRE -48 288 -192 288
WIRE 128 288 -48 288
WIRE 448 288 128 288
WIRE 752 288 448 288
WIRE 80 368 80 160
WIRE 128 368 80 368
WIRE 416 368 416 160
WIRE 448 368 416 368
WIRE 720 368 720 160
WIRE 752 368 720 368
WIRE -48 464 -192 464
WIRE 128 464 -48 464
WIRE 448 464 128 464
WIRE 752 464 448 464
WIRE 80 544 80 368
WIRE 80 544 48 544
WIRE 128 544 80 544
WIRE 416 544 416 368
WIRE 416 544 384 544
WIRE 448 544 416 544
WIRE 720 544 720 368
WIRE 720 544 688 544
WIRE 752 544 720 544
WIRE 80 624 80 544
WIRE 416 624 416 544
WIRE 720 624 720 544
FLAG -48 80 A
FLAG -48 288 B
FLAG -48 464 B
FLAG 48 544 X
FLAG 384 544 Y
FLAG 688 544 Z
FLAG 80 704 0
FLAG 416 704 0
FLAG 720 704 0
FLAG -192 544 0
FLAG -192 368 0
FLAG -192 160 0
SYMBOL memristor 112 64 R0
SYMATTR InstName U1
SYMATTR SpiceLine Ron={ron} Roff={roff} Rinit={rini}t D=10N uv=10F p={p}
SYMBOL memristor 432 64 R0
SYMATTR InstName U2
SYMATTR SpiceLine Ron={ron} Roff={roff} Rinit={rini}t D=10N uv=10F p={p}
SYMBOL memristor 736 64 R0
SYMATTR InstName U3
SYMATTR SpiceLine Ron={ron} Roff={roff} Rinit={rini}t D=10N uv=10F p={p}
SYMBOL memristor 112 272 R0
SYMATTR InstName U4
SYMATTR SpiceLine Ron={ron} Roff={roff} Rinit={rini}t D=10N uv=10F p={p}
SYMBOL memristor 432 272 R0
SYMATTR InstName U5
SYMATTR SpiceLine Ron={ron} Roff={roff} Rinit={rini}t D=10N uv=10F p={p}
SYMBOL memristor 736 272 R0
SYMATTR InstName U6
SYMATTR SpiceLine Ron={ron} Roff={roff} Rinit={rini}t D=10N uv=10F p={p}
SYMBOL memristor 112 448 R0
SYMATTR InstName U7
SYMATTR SpiceLine Ron={ron} Roff={roff} Rinit={rini}t D=10N uv=10F p={p}
SYMBOL memristor 432 448 R0
SYMATTR InstName U8
SYMATTR SpiceLine Ron={ron} Roff={roff} Rinit={rini}t D=10N uv=10F p={p}
SYMBOL memristor 736 448 R0
SYMATTR InstName U9
SYMATTR SpiceLine Ron={ron} Roff={roff} Rinit={rini}t D=10N uv=10F p={p}
SYMBOL voltage -192 64 R0
SYMATTR InstName V1
SYMBOL voltage -192 272 R0
SYMATTR InstName V2
SYMBOL voltage -192 448 R0
SYMATTR InstName V3
SYMBOL voltage 80 608 R0
SYMATTR InstName V4
SYMBOL voltage 416 608 R0
SYMATTR InstName V5
SYMBOL voltage 720 608 R0
SYMATTR InstName V6
TEXT 1208 112 Left 2 !ron = 1k
TEXT 1208 144 Left 2 !roff = 100k
TEXT 1208 176 Left 2 !rinit = 11k
TEXT 1208 208 Left 2 !p = 1
