Version 4
SHEET 1 1660 680
WIRE -192 -240 -192 -272
WIRE 48 -240 -192 -240
WIRE 96 -240 48 -240
WIRE 320 -240 176 -240
WIRE -192 -192 -192 -240
WIRE 320 -160 320 -240
WIRE 464 -160 320 -160
WIRE 480 -160 464 -160
WIRE 0 -96 -112 -96
WIRE 112 -96 0 -96
WIRE 320 -96 320 -160
WIRE 320 -96 192 -96
WIRE -192 -80 -192 -112
WIRE -112 -16 -112 -96
WIRE 48 80 48 -240
WIRE 128 80 48 80
WIRE 336 80 208 80
WIRE -112 96 -112 64
WIRE 336 160 336 80
WIRE 480 160 336 160
WIRE 496 160 480 160
WIRE 0 224 0 -96
WIRE 128 224 0 224
WIRE 336 224 336 160
WIRE 336 224 208 224
FLAG -112 96 0
FLAG -112 -96 VB
FLAG -192 -80 0
FLAG -192 -272 VA
FLAG 464 -160 VOUT_AND
FLAG 480 160 VOUT_OR
SYMBOL memristor 80 -224 R270
WINDOW 0 32 56 VTop 2
WINDOW 3 0 56 VBottom 2
WINDOW 39 17 627 VTop 2
SYMATTR InstName U1
SYMATTR SpiceLine Ron={ron} Roff={roff} Rinit={rinit} D=10N uv=10F p={p}
SYMBOL memristor 96 -80 R270
WINDOW 0 32 56 VTop 2
WINDOW 3 0 56 VBottom 2
WINDOW 39 14 617 VTop 2
SYMATTR InstName U2
SYMATTR SpiceLine Ron={ron} Roff={roff} Rinit={rinit} D=10N uv=10F p={p}
SYMBOL voltage -192 -208 R0
WINDOW 3 -411 47 Left 2
WINDOW 123 0 0 Left 0
WINDOW 39 0 0 Left 0
SYMATTR Value PULSE(0 1.8 2 0.01 0.01 2 4 30)
SYMATTR InstName V1
SYMBOL voltage -112 -32 R0
WINDOW 3 -396 65 Left 2
WINDOW 123 0 0 Left 0
WINDOW 39 0 0 Left 0
SYMATTR Value PULSE(0 1.8 1 0.01 0.01 1 2 60)
SYMATTR InstName V2
SYMBOL memristor 224 64 R90
WINDOW 0 0 56 VBottom 2
WINDOW 3 32 56 VTop 2
WINDOW 39 3 -449 VTop 2
SYMATTR InstName U3
SYMATTR SpiceLine Ron={ron} Roff={roff} Rinit={rinit} D=10N uv=10F p={p}
SYMBOL memristor 224 208 R90
WINDOW 0 0 56 VBottom 2
WINDOW 3 32 56 VTop 2
WINDOW 39 6 -461 VTop 2
SYMATTR InstName U4
SYMATTR SpiceLine Ron={ron} Roff={roff} Rinit={rinit} D=10N uv=10F p={p}
TEXT -512 -88 Left 2 !.tran 0 30 0 0.01
TEXT 1448 -264 Left 2 !.param ron=1K
TEXT 1448 -240 Left 2 !.param roff=100K
TEXT 1448 -216 Left 2 !.param rinit=11K
TEXT 1448 -192 Left 2 !.param p=1
